3
1th -17277.824675632 eV
Au      -1.624239059    1.609244823    0.662183253    0.273771187   -0.203271507    0.056615717
Au       0.607399125    0.450580105    1.177902956   -0.114671252   -0.122487409   -0.100838711
Au       1.407697629   -1.940939976    0.706959054   -0.159099935    0.325758916    0.044171572
3
1th -17277.846569921 eV
Au      -1.653318934    1.711217800    0.684299156    0.017894886   -0.016506490   -0.001388396
Au       0.540111597    0.393987777    1.131972491    0.013061210   -0.016660756    0.010541528
Au       1.504064503   -1.986320626    0.730773086   -0.031007518    0.033167246   -0.009204553
3
2th -17277.481948099 eV
Au       0.442890631   -1.076811588   -0.140510837    0.282512942   -1.360988355   -0.104541101
Au      -1.802381804   -0.128839304    1.110246062   -0.661750827    0.341494074    0.367050851
Au       1.531487524    1.490089462   -0.872196224    0.379237886    1.019494281   -0.262509750
3
2th -17277.709832656 eV
Au       0.387335491   -0.919300404   -0.115111389   -0.773593865   -0.238032837    0.442229941
Au      -1.727664628   -0.186736582    1.069714263    0.682782460   -0.137914035   -0.373889989
Au       1.512325488    1.390475028   -0.857063873    0.090811404    0.375946872   -0.068339953
3
2th -17277.731378639 eV
Au       0.388803958   -0.903434084   -0.116612135   -0.527127806   -0.387208309    0.312646284
Au      -1.760577334   -0.207218386    1.089472153    0.398315480   -0.035121285   -0.215972762
Au       1.543770256    1.395091041   -0.875321016    0.128812326    0.422329594   -0.096622100
3
2th -17277.831723383 eV
Au       0.316662287   -0.549205507   -0.089825714    0.365713877    0.129686501   -0.199774805
Au      -1.965856814   -0.478514840    1.218642192   -0.186970705    0.040006383    0.097393431
Au       1.821191408    1.312158918   -1.031277477   -0.178743172   -0.169692884    0.102381374
3
3th -17277.607866113 eV
Au       1.239761655    0.790721985   -0.379564524    0.747574289    0.609968786    0.252328177
Au       0.392843696   -1.101316726    1.310462905   -0.157917227   -0.320153909    0.252533865
Au      -0.708198387   -0.111884466   -2.136090476   -0.589657062   -0.289763456   -0.504862042
3
4th -17277.498231398 eV
Au      -0.465804533    2.070769371   -1.214584991   -0.477454070    0.408857007   -0.218441022
Au      -0.264378521    1.405796295    1.331839547   -0.401452227    0.222400523    0.441869987
Au       1.841356234    0.165216004   -0.549492850    0.878906297   -0.631257530   -0.223428964
14
97th -80637.988876983 eV
Au       0.912191967    0.969617219    1.727228057    0.574281859   -0.014449606   -0.621333067
Au      -0.108643785    3.186198195    0.593880764    0.481516415    0.265337965    0.532012904
Au       1.338752718    0.127019993   -0.975376784    1.585548606   -0.585389029    2.871614981
Au      -0.939911327    2.460362332   -2.125587896   -0.469895024    0.563483220   -0.763463714
Au      -1.807443384    0.218446468    0.864144793   -0.530778774    0.304778705    0.164344987
Au       3.314664429    1.185811509    0.421406036   -0.755801823   -0.553558758   -0.339797146
Au      -0.087134319   -1.369323286    3.217878976   -0.040469182   -0.351778492    1.157305472
Au      -0.842481337   -2.607464600    0.197270384   -0.863016873   -1.169955305   -0.315217388
Au      -0.805451103   -0.240331121   -2.827352017   -0.049159514   -0.324781896   -0.813703092
Au       1.706614488   -2.679007771   -1.746598059    0.754567693   -0.632800193   -0.746288737
Au      -0.845618299    1.266318942    3.781020365    0.006427761    0.256184833    0.503576490
Au       2.206756801   -1.310413162    0.889532599   -0.079498545    2.246168147   -1.500085098
Au       1.717546760    1.945554402   -2.936909691    0.638765155    0.056718561   -0.103204127
Au      -3.472417976    0.218662902   -1.360595037   -1.252539175   -0.060060997   -0.025762465
20
8th -115202.382871581 eV
Au       3.693837361    1.088966788    1.672580456    0.364274059   -0.336351866    0.070551102
Au       0.567920917    0.993386801    2.071247747    0.321645149    0.458993541    0.455959638
Au      -2.312474765    0.133290214    1.299957679   -0.515506414   -1.695437604    0.504553510
Au      -2.017637863    3.045016891    0.845840554   -0.477299804    0.988641029    0.574641813
Au      -0.157415402   -1.655435114    0.361571440   -0.658254125    0.386848354    0.558443856
Au       2.459117707   -2.622693791   -0.977161699    0.742380658   -0.924414843   -0.161259662
Au      -0.411896722   -3.284206047   -1.965748862   -0.473494570   -0.721143337   -0.204968436
Au       1.304302753   -0.707185541   -2.870957807    0.564305974   -0.163625078   -0.796065316
Au       2.984013871    0.346873014   -0.839902127    0.350544362    1.717703367    0.331621034
Au       2.225539946    2.798009141   -0.334447933    0.194529752   -0.539314840   -0.913359095
Au      -2.361205107   -1.181131466   -1.697179787   -0.811954741   -0.119350662    0.166556137
Au      -0.329536639    0.873830853   -0.741259791    0.390345056   -0.288529326   -0.277884954
Au       2.450452959   -1.379006699    1.678775004    0.089320164   -0.044480105    1.117350511
Au      -1.526816477   -2.139251781    2.661667692   -0.347459036    0.347150504   -0.995274478
Au       1.060270567    2.223386724   -2.672558688    0.278502019    0.424797854    0.526047942
Au      -1.857162228    0.300343520    3.973728183   -0.526716429   -0.054713100   -0.085360663
Au       0.917702289   -1.371252666    3.848342818    0.767526058   -0.339899990    0.057129938
Au      -1.619639980    0.498754281   -3.724537577   -0.682576772   -0.235667421   -0.783569749
Au      -3.253918060   -2.265574847    0.604198132    0.474214479    0.762332428    0.209287891
Au      -1.504729679    3.146924250   -1.977539989   -0.044325838    0.376461093   -0.354401018